Version 4
SHEET 1 1652 1000
WIRE -576 -416 -624 -416
WIRE -512 -416 -576 -416
WIRE -432 -416 -512 -416
WIRE -256 -416 -336 -416
WIRE -192 -416 -256 -416
WIRE -32 -416 -192 -416
WIRE 96 -416 -32 -416
WIRE 128 -416 96 -416
WIRE 224 -416 208 -416
WIRE 256 -416 224 -416
WIRE 352 -416 336 -416
WIRE 512 -416 352 -416
WIRE 784 -416 512 -416
WIRE 880 -416 784 -416
WIRE 1040 -416 976 -416
WIRE 1104 -416 1040 -416
WIRE 1152 -416 1104 -416
WIRE 1184 -416 1152 -416
WIRE 1248 -416 1184 -416
WIRE 1264 -416 1248 -416
WIRE 1360 -416 1344 -416
WIRE 1488 -416 1360 -416
WIRE 1520 -416 1488 -416
WIRE 1584 -416 1520 -416
WIRE 1040 -400 1040 -416
WIRE 1104 -400 1104 -416
WIRE 1184 -400 1184 -416
WIRE 1584 -400 1584 -416
WIRE -624 -384 -624 -416
WIRE -512 -384 -512 -416
WIRE -192 -336 -192 -416
WIRE 512 -336 512 -416
WIRE -32 -320 -32 -416
WIRE 96 -320 96 -416
WIRE 224 -320 224 -416
WIRE 352 -320 352 -416
WIRE -192 -240 -192 -272
WIRE -144 -240 -192 -240
WIRE 512 -240 512 -272
WIRE 512 -240 464 -240
WIRE -256 -224 -256 -416
WIRE 784 -224 784 -416
WIRE -144 -144 -208 -144
WIRE 736 -144 464 -144
WIRE -352 -64 -352 -368
WIRE -144 -64 -352 -64
WIRE 896 -64 896 -368
WIRE 896 -64 464 -64
WIRE -576 -16 -576 -416
WIRE -368 -16 -576 -16
WIRE -256 -16 -368 -16
WIRE -576 0 -576 -16
WIRE -368 0 -368 -16
WIRE -256 16 -256 -16
WIRE -144 16 -256 16
WIRE 544 16 464 16
WIRE 1152 16 1152 -416
WIRE 1152 16 544 16
WIRE -576 112 -576 80
WIRE -144 112 -576 112
WIRE 1248 112 1248 -416
WIRE 1248 112 464 112
WIRE -576 128 -576 112
WIRE 1488 192 1488 -416
WIRE -224 208 -320 208
WIRE -144 208 -224 208
WIRE 1360 208 1360 -416
WIRE 1360 208 464 208
WIRE -320 240 -320 208
WIRE -224 304 -224 288
WIRE -144 304 -224 304
WIRE 1488 304 1488 272
WIRE 1488 304 464 304
WIRE 1488 320 1488 304
WIRE -192 400 -320 400
WIRE -144 400 -192 400
WIRE 528 400 464 400
WIRE -320 432 -320 400
WIRE -192 496 -192 400
WIRE -144 496 -192 496
WIRE 528 496 464 496
WIRE -192 592 -192 496
WIRE -144 592 -192 592
WIRE -144 672 -176 672
WIRE 496 672 464 672
WIRE -176 704 -176 672
WIRE 496 704 496 672
WIRE -32 784 -32 768
WIRE 160 784 160 768
WIRE 160 784 96 784
WIRE 352 784 352 768
WIRE 96 832 96 784
WIRE 160 896 160 864
FLAG -368 64 0
FLAG -576 208 0
FLAG -624 -320 0
FLAG -512 -320 0
FLAG -256 -128 0
FLAG 784 -128 0
FLAG -320 496 0
FLAG -320 304 0
FLAG -176 704 0
FLAG 1040 -336 0
FLAG 1184 -336 0
FLAG 1584 -336 0
FLAG 1104 -336 0
FLAG 544 80 0
FLAG 496 704 0
FLAG 352 864 0
FLAG 160 960 0
FLAG -32 848 0
FLAG 96 896 0
FLAG 1488 400 0
FLAG -624 -416 Vin
FLAG 1584 -416 Vout
FLAG -928 64 0
FLAG -928 -16 Vin
FLAG 1520 -336 0
SYMBOL PowerProducts\\LT8390 160 224 R0
SYMATTR InstName U1
SYMBOL nmos 976 -368 M270
SYMATTR InstName M1
SYMATTR Value BSC123N08NS3
SYMBOL nmos -432 -368 R270
SYMATTR InstName M2
SYMATTR Value BSC123N08NS3
SYMBOL nmos -208 -224 M0
SYMATTR InstName M3
SYMATTR Value BSC123N08NS3
SYMBOL nmos 736 -224 R0
SYMATTR InstName M4
SYMATTR Value BSC123N08NS3
SYMBOL cap -208 -336 R0
SYMATTR InstName C1
SYMATTR Value 0.1µ
SYMBOL res 224 -432 R90
WINDOW 0 0 56 VBottom 2
WINDOW 3 32 56 VTop 2
SYMATTR InstName R1
SYMATTR Value 11m
SYMBOL cap 496 -336 R0
SYMATTR InstName C2
SYMATTR Value 0.1µ
SYMBOL ind 240 -400 R270
WINDOW 0 32 56 VTop 2
WINDOW 3 5 56 VBottom 2
SYMATTR InstName L1
SYMATTR Value 47µ
SYMBOL cap -384 0 R0
SYMATTR InstName C3
SYMATTR Value 1µ
SYMBOL res -592 -16 R0
SYMATTR InstName R2
SYMATTR Value 120k
SYMBOL res -592 112 R0
SYMATTR InstName R3
SYMATTR Value 5.1k
SYMBOL cap -336 432 R0
SYMATTR InstName C4
SYMATTR Value 0.47µ
SYMBOL cap -528 -384 R0
SYMATTR InstName C5
SYMATTR Value 4.7µ
SYMATTR SpiceLine V=100
SYMBOL cap -640 -384 R0
SYMATTR InstName C6
SYMATTR Value 22µ
SYMATTR SpiceLine V=50
SYMBOL cap -336 240 R0
SYMATTR InstName C7
SYMATTR Value 4.7µ
SYMBOL res -240 192 R0
SYMATTR InstName R4
SYMATTR Value 100k
SYMBOL cap 1024 -400 R0
SYMATTR InstName C8
SYMATTR Value 10µ
SYMATTR SpiceLine V=50
SYMBOL cap 1088 -400 R0
SYMATTR InstName C9
SYMATTR Value 10µ
SYMATTR SpiceLine V=50
SYMBOL cap 1568 -400 R0
SYMATTR InstName C10
SYMATTR Value 120µ
SYMATTR SpiceLine V=50
SYMBOL res 1360 -432 R90
WINDOW 0 0 56 VBottom 2
WINDOW 3 32 56 VTop 2
SYMATTR InstName R5
SYMATTR Value 13m
SYMBOL cap 1168 -400 R0
SYMATTR InstName C11
SYMATTR Value 120µ
SYMATTR SpiceLine V=50
SYMBOL cap 528 16 R0
SYMATTR InstName C12
SYMATTR Value 1µ
SYMBOL res 1472 176 R0
SYMATTR InstName R6
SYMATTR Value 126k
SYMBOL res 1472 304 R0
SYMATTR InstName R7
SYMATTR Value 3.6k
SYMBOL cap -48 784 R0
SYMATTR InstName C13
SYMATTR Value 125n
SYMBOL res 144 768 R0
SYMATTR InstName R8
SYMATTR Value 27k
SYMBOL cap 144 896 R0
SYMATTR InstName C14
SYMATTR Value 4.7n
SYMBOL cap 80 832 R0
SYMATTR InstName C15
SYMATTR Value 100p
SYMBOL res 336 768 R0
SYMATTR InstName R9
SYMATTR Value 140k
SYMBOL voltage -928 -32 R0
WINDOW 123 0 0 Left 0
WINDOW 39 0 0 Left 0
SYMATTR InstName V1
SYMATTR Value 32
SYMBOL res 1504 -432 R0
SYMATTR InstName R10
SYMATTR Value 20
TEXT -810 32 Left 2 !.tran 0 20m 0
